
     RDKit          3D

 15 15  0  0  0  0  0  0  0  0999 V2000
    2.2372   -0.1129    0.1312 C   0  0  0  0  0  0  0  0  0  0  0  0
    0.7374   -0.0682    0.0342 C   0  0  0  0  0  0  0  0  0  0  0  0
    0.0418   -1.1584   -0.3336 C   0  0  0  0  0  0  0  0  0  0  0  0
   -1.3895   -1.1325   -0.4310 N   0  0  0  0  0  0  0  0  0  0  0  0
   -2.1190    0.0617   -0.1374 C   0  0  0  0  0  0  0  0  0  0  0  0
   -3.3753    0.0778   -0.2248 O   0  0  0  0  0  0  0  0  0  0  0  0
   -1.4085    1.2353    0.2557 N   0  0  0  0  0  0  0  0  0  0  0  0
    0.0182    1.1888    0.3468 C   0  0  0  0  0  0  0  0  0  0  0  0
    0.6553    2.2195    0.6930 O   0  0  0  0  0  0  0  0  0  0  0  0
    2.6427   -1.1139   -0.1300 H   0  0  0  0  0  0  0  0  0  0  0  0
    2.6761    0.6340   -0.5631 H   0  0  0  0  0  0  0  0  0  0  0  0
    2.5492    0.1308    1.1685 H   0  0  0  0  0  0  0  0  0  0  0  0
    0.5582   -2.0824   -0.5642 H   0  0  0  0  0  0  0  0  0  0  0  0
   -1.8996   -1.9970   -0.7196 H   0  0  0  0  0  0  0  0  0  0  0  0
   -1.9243    2.1173    0.4742 H   0  0  0  0  0  0  0  0  0  0  0  0
  1  2  1  0
  2  3  2  0
  3  4  1  0
  4  5  1  0
  5  6  2  0
  5  7  1  0
  7  8  1  0
  8  9  2  0
  8  2  1  0
  1 10  1  0
  1 11  1  0
  1 12  1  0
  3 13  1  0
  4 14  1  0
  7 15  1  0
M  END
>  <tautomer smiles>  (1) 
Cc1c[nH]c(=O)[nH]c1=O

>  <protonation smiles>  (1) 
Cc1c[nH]c(=O)[nH]c1=O

>  <Score>  (1) 
0.0

>  <Label>  (1) 
low_energy

$$$$

     RDKit          3D

 14 14  0  0  0  0  0  0  0  0999 V2000
   -2.0686   -0.2371    0.1021 C   0  0  0  0  0  0  0  0  0  0  0  0
   -0.5848   -0.0135    0.0320 C   0  0  0  0  0  0  0  0  0  0  0  0
    0.2632   -1.0504   -0.0766 C   0  0  0  0  0  0  0  0  0  0  0  0
    1.6756   -0.8240   -0.1425 N   0  0  0  0  0  0  0  0  0  0  0  0
    2.1665    0.5167   -0.0911 C   0  0  0  0  0  0  0  0  0  0  0  0
    3.4023    0.7486   -0.1468 O   0  0  0  0  0  0  0  0  0  0  0  0
    1.2345    1.5949    0.0246 N   0  0  0  0  0  0  0  0  0  0  0  0
   -0.0460    1.3721    0.0833 C   0  0  0  0  0  0  0  0  0  0  0  0
   -0.9161    2.4498    0.1956 O   0  0  0  0  0  1  0  0  0  0  0  0
   -2.5621    0.2814   -0.7465 H   0  0  0  0  0  0  0  0  0  0  0  0
   -2.4610    0.1753    1.0552 H   0  0  0  0  0  0  0  0  0  0  0  0
   -2.3298   -1.3161    0.0532 H   0  0  0  0  0  0  0  0  0  0  0  0
   -0.1080   -2.0673   -0.1156 H   0  0  0  0  0  0  0  0  0  0  0  0
    2.3341   -1.6303   -0.2269 H   0  0  0  0  0  0  0  0  0  0  0  0
  1  2  1  0
  2  3  2  0
  3  4  1  0
  4  5  1  0
  5  6  2  0
  5  7  1  0
  7  8  2  0
  8  9  1  0
  8  2  1  0
  1 10  1  0
  1 11  1  0
  1 12  1  0
  3 13  1  0
  4 14  1  0
M  CHG  1   9  -1
M  END
>  <tautomer smiles>  (2) 
Cc1c[nH]c(=O)nc1O

>  <protonation smiles>  (2) 
Cc1c[nH]c(=O)nc1[O-]

>  <Score>  (2) 
9.22

>  <Label>  (2) 
high_energy

$$$$

     RDKit          3D

 15 15  0  0  0  0  0  0  0  0999 V2000
   -2.3846    0.2753   -0.2416 C   0  0  0  0  0  0  0  0  0  0  0  0
   -0.9177   -0.0246   -0.1165 C   0  0  0  0  0  0  0  0  0  0  0  0
   -0.4432   -1.2698   -0.2834 C   0  0  0  0  0  0  0  0  0  0  0  0
    0.9625   -1.5526   -0.1628 N   0  0  0  0  0  0  0  0  0  0  0  0
    1.8433   -0.6349    0.1105 C   0  0  0  0  0  0  0  0  0  0  0  0
    3.1865   -0.9809    0.2121 O   0  0  0  0  0  0  0  0  0  0  0  0
    1.4293    0.7238    0.3053 N   0  0  0  0  0  0  0  0  0  0  0  0
    0.0422    1.0505    0.1948 C   0  0  0  0  0  0  0  0  0  0  0  0
   -0.3446    2.2381    0.3620 O   0  0  0  0  0  0  0  0  0  0  0  0
   -2.9750   -0.6359   -0.4781 H   0  0  0  0  0  0  0  0  0  0  0  0
   -2.7594    0.6981    0.7141 H   0  0  0  0  0  0  0  0  0  0  0  0
   -2.5436    1.0168   -1.0523 H   0  0  0  0  0  0  0  0  0  0  0  0
   -1.1162   -2.0862   -0.5130 H   0  0  0  0  0  0  0  0  0  0  0  0
    3.8894   -0.2833    0.4239 H   0  0  0  0  0  0  0  0  0  0  0  0
    2.1313    1.4655    0.5249 H   0  0  0  0  0  0  0  0  0  0  0  0
  1  2  1  0
  2  3  2  0
  3  4  1  0
  4  5  2  0
  5  6  1  0
  5  7  1  0
  7  8  1  0
  8  9  2  0
  8  2  1  0
  1 10  1  0
  1 11  1  0
  1 12  1  0
  3 13  1  0
  6 14  1  0
  7 15  1  0
M  END
>  <tautomer smiles>  (3) 
Cc1cnc(O)[nH]c1=O

>  <protonation smiles>  (3) 
Cc1cnc(O)[nH]c1=O

>  <Score>  (3) 
12.87

>  <Label>  (3) 
high_energy

$$$$

     RDKit          3D

 14 14  0  0  0  0  0  0  0  0999 V2000
    2.0033    0.4927    0.5405 C   0  0  0  0  0  0  0  0  0  0  0  0
    0.5786    0.0977    0.2734 C   0  0  0  0  0  0  0  0  0  0  0  0
   -0.1626   -0.5169    1.2098 C   0  0  0  0  0  0  0  0  0  0  0  0
   -1.5269   -0.8935    0.9496 N   0  0  0  0  0  0  0  0  0  0  0  0
   -2.1129   -0.6646   -0.1891 C   0  0  0  0  0  0  0  0  0  0  0  0
   -3.4327   -1.0534   -0.3763 O   0  0  0  0  0  1  0  0  0  0  0  0
   -1.4014   -0.0139   -1.2477 N   0  0  0  0  0  0  0  0  0  0  0  0
   -0.0435    0.3782   -1.0339 C   0  0  0  0  0  0  0  0  0  0  0  0
    0.6024    0.9522   -1.9510 O   0  0  0  0  0  0  0  0  0  0  0  0
    2.6713   -0.0149   -0.1866 H   0  0  0  0  0  0  0  0  0  0  0  0
    2.3250    0.2142    1.5669 H   0  0  0  0  0  0  0  0  0  0  0  0
    2.1113    1.5916    0.4248 H   0  0  0  0  0  0  0  0  0  0  0  0
    0.2582   -0.7401    2.1821 H   0  0  0  0  0  0  0  0  0  0  0  0
   -1.8703    0.1708   -2.1626 H   0  0  0  0  0  0  0  0  0  0  0  0
  1  2  1  0
  2  3  2  0
  3  4  1  0
  4  5  2  0
  5  6  1  0
  5  7  1  0
  7  8  1  0
  8  9  2  0
  8  2  1  0
  1 10  1  0
  1 11  1  0
  1 12  1  0
  3 13  1  0
  7 14  1  0
M  CHG  1   6  -1
M  END
>  <tautomer smiles>  (4) 
Cc1cnc(O)[nH]c1=O

>  <protonation smiles>  (4) 
Cc1cnc([O-])[nH]c1=O

>  <Score>  (4) 
12.87

>  <Label>  (4) 
high_energy

$$$$

     RDKit          3D

 14 14  0  0  0  0  0  0  0  0999 V2000
   -2.2438   -0.3181   -0.0761 C   0  0  0  0  0  0  0  0  0  0  0  0
   -0.7614   -0.0833   -0.0102 C   0  0  0  0  0  0  0  0  0  0  0  0
    0.1059   -0.9258   -0.5950 C   0  0  0  0  0  0  0  0  0  0  0  0
    1.5250   -0.6961   -0.5287 N   0  0  0  0  0  0  0  0  0  0  0  0
    2.0430    0.3249    0.0917 C   0  0  0  0  0  0  0  0  0  0  0  0
    3.4225    0.4973    0.1238 O   0  0  0  0  0  0  0  0  0  0  0  0
    1.1951    1.2752    0.7441 N   0  0  0  0  0  2  0  0  0  0  0  0
   -0.2196    1.0874    0.7042 C   0  0  0  0  0  0  0  0  0  0  0  0
   -0.9812    1.9136    1.2728 O   0  0  0  0  0  0  0  0  0  0  0  0
   -2.7344    0.5460   -0.5713 H   0  0  0  0  0  0  0  0  0  0  0  0
   -2.6487   -0.4233    0.9523 H   0  0  0  0  0  0  0  0  0  0  0  0
   -2.4925   -1.2381   -0.6474 H   0  0  0  0  0  0  0  0  0  0  0  0
   -0.2520   -1.7969   -1.1291 H   0  0  0  0  0  0  0  0  0  0  0  0
    4.0421   -0.1629   -0.3311 H   0  0  0  0  0  0  0  0  0  0  0  0
  1  2  1  0
  2  3  2  0
  3  4  1  0
  4  5  2  0
  5  6  1  0
  5  7  1  0
  7  8  1  0
  8  9  2  0
  8  2  1  0
  1 10  1  0
  1 11  1  0
  1 12  1  0
  3 13  1  0
  6 14  1  0
M  CHG  1   7  -1
M  END
>  <tautomer smiles>  (5) 
Cc1cnc(O)[nH]c1=O

>  <protonation smiles>  (5) 
Cc1cnc(O)[n-]c1=O

>  <Score>  (5) 
12.87

>  <Label>  (5) 
high_energy

$$$$

     RDKit          3D

 13 13  0  0  0  0  0  0  0  0999 V2000
   -1.9500    0.2240   -0.0335 C   0  0  0  0  0  0  0  0  0  0  0  0
   -0.4573    0.0656    0.0252 C   0  0  0  0  0  0  0  0  0  0  0  0
    0.3479    1.1390    0.0780 C   0  0  0  0  0  0  0  0  0  0  0  0
    1.7798    0.9955    0.0954 N   0  0  0  0  0  0  0  0  0  0  0  0
    2.3683   -0.1637    0.0438 C   0  0  0  0  0  0  0  0  0  0  0  0
    3.7541   -0.2373    0.0655 O   0  0  0  0  0  1  0  0  0  0  0  0
    1.5923   -1.3630   -0.0375 N   0  0  0  0  0  2  0  0  0  0  0  0
    0.1677   -1.2687   -0.0558 C   0  0  0  0  0  0  0  0  0  0  0  0
   -0.5310   -2.3127   -0.1430 O   0  0  0  0  0  0  0  0  0  0  0  0
   -2.2704    1.1831    0.4273 H   0  0  0  0  0  0  0  0  0  0  0  0
   -2.4467   -0.6013    0.5186 H   0  0  0  0  0  0  0  0  0  0  0  0
   -2.2818    0.2030   -1.0925 H   0  0  0  0  0  0  0  0  0  0  0  0
   -0.0729    2.1363    0.1086 H   0  0  0  0  0  0  0  0  0  0  0  0
  1  2  1  0
  2  3  2  0
  3  4  1  0
  4  5  2  0
  5  6  1  0
  5  7  1  0
  7  8  1  0
  8  9  2  0
  8  2  1  0
  1 10  1  0
  1 11  1  0
  1 12  1  0
  3 13  1  0
M  CHG  2   6  -1   7  -1
M  END
>  <tautomer smiles>  (6) 
Cc1cnc(O)[nH]c1=O

>  <protonation smiles>  (6) 
Cc1cnc([O-])[n-]c1=O

>  <Score>  (6) 
12.87

>  <Label>  (6) 
high_energy

$$$$

     RDKit          3D

 15 15  0  0  0  0  0  0  0  0999 V2000
   -1.7499   -0.1742    0.6776 C   0  0  0  0  0  0  0  0  0  0  0  0
   -0.7177    0.2472   -0.3700 C   0  0  0  0  0  0  0  0  0  0  0  0
   -0.0921   -0.9846   -0.9897 C   0  0  0  0  0  0  0  0  0  0  0  0
    1.1333   -1.3503   -0.7557 N   0  0  0  0  0  0  0  0  0  0  0  0
    2.0308   -0.5771    0.0420 C   0  0  0  0  0  0  0  0  0  0  0  0
    3.1863   -1.0115    0.2876 O   0  0  0  0  0  0  0  0  0  0  0  0
    1.6237    0.6970    0.5341 N   0  0  0  0  0  0  0  0  0  0  0  0
    0.3046    1.1651    0.2534 C   0  0  0  0  0  0  0  0  0  0  0  0
   -0.0171    2.3442    0.5605 O   0  0  0  0  0  0  0  0  0  0  0  0
   -2.2558    0.7200    1.1009 H   0  0  0  0  0  0  0  0  0  0  0  0
   -2.5255   -0.8208    0.2135 H   0  0  0  0  0  0  0  0  0  0  0  0
   -1.2613   -0.7356    1.5036 H   0  0  0  0  0  0  0  0  0  0  0  0
   -1.2414    0.8048   -1.1766 H   0  0  0  0  0  0  0  0  0  0  0  0
   -0.7154   -1.6241   -1.6013 H   0  0  0  0  0  0  0  0  0  0  0  0
    2.2975    1.2998    1.0578 H   0  0  0  0  0  0  0  0  0  0  0  0
  1  2  1  0
  2  3  1  0
  3  4  2  0
  4  5  1  0
  5  6  2  0
  5  7  1  0
  7  8  1  0
  8  9  2  0
  8  2  1  0
  1 10  1  0
  1 11  1  0
  1 12  1  0
  2 13  1  0
  3 14  1  0
  7 15  1  0
M  END
>  <tautomer smiles>  (7) 
CC1C=NC(=O)NC1=O

>  <protonation smiles>  (7) 
CC1C=NC(=O)NC1=O

>  <Score>  (7) 
12.93

>  <Label>  (7) 
high_energy

$$$$

     RDKit          3D

 14 14  0  0  0  0  0  0  0  0999 V2000
   -2.2377    0.0619   -0.0265 C   0  0  0  0  0  0  0  0  0  0  0  0
   -0.7395   -0.0341   -0.0141 C   0  0  0  0  0  0  0  0  0  0  0  0
   -0.0936   -1.2722   -0.1237 C   0  0  0  0  0  0  0  0  0  0  0  0
    1.2629   -1.3357   -0.1101 N   0  0  0  0  0  0  0  0  0  0  0  0
    2.0147   -0.2112    0.0089 C   0  0  0  0  0  0  0  0  0  0  0  0
    3.4017   -0.3054    0.0200 O   0  0  0  0  0  0  0  0  0  0  0  0
    1.4105    1.0015    0.1167 N   0  0  0  0  0  0  0  0  0  0  0  0
    0.0568    1.1139    0.1079 C   0  0  0  0  0  0  0  0  0  0  0  0
   -0.5255    2.3711    0.2204 O   0  0  0  0  0  1  0  0  0  0  0  0
   -2.5907    0.5191    0.9218 H   0  0  0  0  0  0  0  0  0  0  0  0
   -2.5646    0.6935   -0.8791 H   0  0  0  0  0  0  0  0  0  0  0  0
   -2.7083   -0.9390   -0.1303 H   0  0  0  0  0  0  0  0  0  0  0  0
   -0.6649   -2.1865   -0.2199 H   0  0  0  0  0  0  0  0  0  0  0  0
    3.9781    0.5230    0.1080 H   0  0  0  0  0  0  0  0  0  0  0  0
  1  2  1  0
  2  3  2  0
  3  4  1  0
  4  5  2  0
  5  6  1  0
  5  7  1  0
  7  8  2  0
  8  9  1  0
  8  2  1  0
  1 10  1  0
  1 11  1  0
  1 12  1  0
  3 13  1  0
  6 14  1  0
M  CHG  1   9  -1
M  END
>  <tautomer smiles>  (8) 
Cc1cnc(O)nc1O

>  <protonation smiles>  (8) 
Cc1cnc(O)nc1[O-]

>  <Score>  (8) 
14.22

>  <Label>  (8) 
high_energy

$$$$

     RDKit          3D

 13 13  0  0  0  0  0  0  0  0999 V2000
   -1.9286   -0.1325    0.0647 C   0  0  0  0  0  0  0  0  0  0  0  0
   -0.4304   -0.0465    0.0181 C   0  0  0  0  0  0  0  0  0  0  0  0
    0.3658   -1.1768    0.2432 C   0  0  0  0  0  0  0  0  0  0  0  0
    1.7194   -1.0759    0.1961 N   0  0  0  0  0  0  0  0  0  0  0  0
    2.3226    0.1116   -0.0678 C   0  0  0  0  0  0  0  0  0  0  0  0
    3.7076    0.1912   -0.1109 O   0  0  0  0  0  1  0  0  0  0  0  0
    1.5722    1.2216   -0.2894 N   0  0  0  0  0  0  0  0  0  0  0  0
    0.2153    1.1688   -0.2525 C   0  0  0  0  0  0  0  0  0  0  0  0
   -0.5203    2.3254   -0.4844 O   0  0  0  0  0  1  0  0  0  0  0  0
   -2.3508    0.1689   -0.9169 H   0  0  0  0  0  0  0  0  0  0  0  0
   -2.2696   -1.1651    0.2915 H   0  0  0  0  0  0  0  0  0  0  0  0
   -2.3175    0.5465    0.8524 H   0  0  0  0  0  0  0  0  0  0  0  0
   -0.0858   -2.1372    0.4559 H   0  0  0  0  0  0  0  0  0  0  0  0
  1  2  1  0
  2  3  2  0
  3  4  1  0
  4  5  2  0
  5  6  1  0
  5  7  1  0
  7  8  2  0
  8  9  1  0
  8  2  1  0
  1 10  1  0
  1 11  1  0
  1 12  1  0
  3 13  1  0
M  CHG  2   6  -1   9  -1
M  END
>  <tautomer smiles>  (9) 
Cc1cnc(O)nc1O

>  <protonation smiles>  (9) 
Cc1cnc([O-])nc1[O-]

>  <Score>  (9) 
14.22

>  <Label>  (9) 
high_energy

$$$$

     RDKit          3D

 14 14  0  0  0  0  0  0  0  0999 V2000
   -2.1092   -0.1622    0.1684 C   0  0  0  0  0  0  0  0  0  0  0  0
   -0.6227    0.0106    0.0363 C   0  0  0  0  0  0  0  0  0  0  0  0
    0.2164   -1.0182    0.2185 C   0  0  0  0  0  0  0  0  0  0  0  0
    1.6319   -0.8265    0.0867 N   0  0  0  0  0  0  0  0  0  0  0  0
    2.1679    0.4634   -0.2406 C   0  0  0  0  0  0  0  0  0  0  0  0
    3.5405    0.6336   -0.3649 O   0  0  0  0  0  1  0  0  0  0  0  0
    1.3734    1.4746   -0.4216 N   0  0  0  0  0  0  0  0  0  0  0  0
   -0.0470    1.3303   -0.3002 C   0  0  0  0  0  0  0  0  0  0  0  0
   -0.7925    2.3291   -0.4814 O   0  0  0  0  0  0  0  0  0  0  0  0
   -2.4905    0.5059    0.9688 H   0  0  0  0  0  0  0  0  0  0  0  0
   -2.6002    0.1056   -0.7907 H   0  0  0  0  0  0  0  0  0  0  0  0
   -2.3838   -1.2083    0.4235 H   0  0  0  0  0  0  0  0  0  0  0  0
   -0.1609   -2.0029    0.4665 H   0  0  0  0  0  0  0  0  0  0  0  0
    2.2767   -1.6351    0.2308 H   0  0  0  0  0  0  0  0  0  0  0  0
  1  2  1  0
  2  3  2  0
  3  4  1  0
  4  5  1  0
  5  6  1  0
  5  7  2  0
  7  8  1  0
  8  9  2  0
  8  2  1  0
  1 10  1  0
  1 11  1  0
  1 12  1  0
  3 13  1  0
  4 14  1  0
M  CHG  1   6  -1
M  END
>  <tautomer smiles>  (10) 
Cc1c[nH]c(O)nc1=O

>  <protonation smiles>  (10) 
Cc1c[nH]c([O-])nc1=O

>  <Score>  (10) 
14.64

>  <Label>  (10) 
high_energy

$$$$

     RDKit          3D

 13 13  0  0  0  0  0  0  0  0999 V2000
   -1.9627    0.0136   -0.0839 C   0  0  0  0  0  0  0  0  0  0  0  0
   -0.4629   -0.0455   -0.0179 C   0  0  0  0  0  0  0  0  0  0  0  0
    0.1848   -1.2164    0.0550 C   0  0  0  0  0  0  0  0  0  0  0  0
    1.6167   -1.2440    0.1170 N   0  0  0  0  0  2  0  0  0  0  0  0
    2.3749   -0.0277    0.1020 C   0  0  0  0  0  0  0  0  0  0  0  0
    3.7606   -0.0758    0.1627 O   0  0  0  0  0  1  0  0  0  0  0  0
    1.7693    1.1191    0.0318 N   0  0  0  0  0  0  0  0  0  0  0  0
    0.3396    1.1969   -0.0320 C   0  0  0  0  0  0  0  0  0  0  0  0
   -0.2207    2.3228   -0.0995 O   0  0  0  0  0  0  0  0  0  0  0  0
   -2.3495    0.5897    0.7826 H   0  0  0  0  0  0  0  0  0  0  0  0
   -2.4184   -0.9996   -0.0639 H   0  0  0  0  0  0  0  0  0  0  0  0
   -2.2728    0.5195   -1.0222 H   0  0  0  0  0  0  0  0  0  0  0  0
   -0.3588   -2.1526    0.0682 H   0  0  0  0  0  0  0  0  0  0  0  0
  1  2  1  0
  2  3  2  0
  3  4  1  0
  4  5  1  0
  5  6  1  0
  5  7  2  0
  7  8  1  0
  8  9  2  0
  8  2  1  0
  1 10  1  0
  1 11  1  0
  1 12  1  0
  3 13  1  0
M  CHG  2   4  -1   6  -1
M  END
>  <tautomer smiles>  (11) 
Cc1c[nH]c(O)nc1=O

>  <protonation smiles>  (11) 
Cc1c[n-]c([O-])nc1=O

>  <Score>  (11) 
14.64

>  <Label>  (11) 
high_energy

$$$$

     RDKit          3D

 14 14  0  0  0  0  0  0  0  0999 V2000
   -2.0772    0.0628    0.2053 C   0  0  0  0  0  0  0  0  0  0  0  0
   -0.5915   -0.0504    0.0126 C   0  0  0  0  0  0  0  0  0  0  0  0
   -0.0350   -1.1737   -0.7852 C   0  0  0  0  0  0  0  0  0  0  0  0
    1.2460   -1.3000   -0.9706 N   0  0  0  0  0  0  0  0  0  0  0  0
    2.1648   -0.3588   -0.4109 C   0  0  0  0  0  0  0  0  0  0  0  0
    3.4025   -0.4917   -0.5973 O   0  0  0  0  0  0  0  0  0  0  0  0
    1.6592    0.7321    0.3612 N   0  0  0  0  0  0  0  0  0  0  0  0
    0.2446    0.8550    0.5547 C   0  0  0  0  0  0  0  0  0  0  0  0
   -0.2502    1.9165    1.3062 O   0  0  0  0  0  1  0  0  0  0  0  0
   -2.3212    0.0185    1.2878 H   0  0  0  0  0  0  0  0  0  0  0  0
   -2.6125   -0.7639   -0.3076 H   0  0  0  0  0  0  0  0  0  0  0  0
   -2.4391    1.0259   -0.2128 H   0  0  0  0  0  0  0  0  0  0  0  0
   -0.7017   -1.9046   -1.2235 H   0  0  0  0  0  0  0  0  0  0  0  0
    2.3111    1.4325    0.7801 H   0  0  0  0  0  0  0  0  0  0  0  0
  1  2  1  0
  2  3  1  0
  3  4  2  0
  4  5  1  0
  5  6  2  0
  5  7  1  0
  7  8  1  0
  8  9  1  0
  8  2  2  0
  1 10  1  0
  1 11  1  0
  1 12  1  0
  3 13  1  0
  7 14  1  0
M  CHG  1   9  -1
M  END
>  <tautomer smiles>  (12) 
Cc1cnc(=O)[nH]c1O

>  <protonation smiles>  (12) 
Cc1cnc(=O)[nH]c1[O-]

>  <Score>  (12) 
16.28

>  <Label>  (12) 
high_energy

$$$$

     RDKit          3D

 13 13  0  0  0  0  0  0  0  0999 V2000
   -1.8913    0.1278   -0.3396 C   0  0  0  0  0  0  0  0  0  0  0  0
   -0.4193    0.0044   -0.0657 C   0  0  0  0  0  0  0  0  0  0  0  0
    0.4879    1.1382   -0.3820 C   0  0  0  0  0  0  0  0  0  0  0  0
    1.7666    1.0622   -0.1565 N   0  0  0  0  0  0  0  0  0  0  0  0
    2.3428   -0.1194    0.4051 C   0  0  0  0  0  0  0  0  0  0  0  0
    3.5806   -0.1842    0.6198 O   0  0  0  0  0  0  0  0  0  0  0  0
    1.4963   -1.2248    0.7192 N   0  0  0  0  0  2  0  0  0  0  0  0
    0.0909   -1.1233    0.4642 C   0  0  0  0  0  0  0  0  0  0  0  0
   -0.7330   -2.2011    0.7707 O   0  0  0  0  0  1  0  0  0  0  0  0
   -2.1366    1.1196   -0.7747 H   0  0  0  0  0  0  0  0  0  0  0  0
   -2.2079   -0.6572   -1.0586 H   0  0  0  0  0  0  0  0  0  0  0  0
   -2.4617    0.0102    0.6059 H   0  0  0  0  0  0  0  0  0  0  0  0
    0.0847    2.0475   -0.8080 H   0  0  0  0  0  0  0  0  0  0  0  0
  1  2  1  0
  2  3  1  0
  3  4  2  0
  4  5  1  0
  5  6  2  0
  5  7  1  0
  7  8  1  0
  8  9  1  0
  8  2  2  0
  1 10  1  0
  1 11  1  0
  1 12  1  0
  3 13  1  0
M  CHG  2   7  -1   9  -1
M  END
>  <tautomer smiles>  (13) 
Cc1cnc(=O)[nH]c1O

>  <protonation smiles>  (13) 
Cc1cnc(=O)[n-]c1[O-]

>  <Score>  (13) 
16.28

>  <Label>  (13) 
high_energy

$$$$

     RDKit          3D

 14 14  0  0  0  0  0  0  0  0999 V2000
   -1.3414    1.0113    0.3367 C   0  0  0  0  0  0  0  0  0  0  0  0
   -0.6072   -0.3169    0.1416 C   0  0  0  0  0  0  0  0  0  0  0  0
    0.6760   -0.3109    0.9370 C   0  0  0  0  0  0  0  0  0  0  0  0
    1.8440   -0.3383    0.3677 N   0  0  0  0  0  0  0  0  0  0  0  0
    2.0150   -0.4260   -1.0520 C   0  0  0  0  0  0  0  0  0  0  0  0
    3.2938   -0.4061   -1.5910 O   0  0  0  0  0  1  0  0  0  0  0  0
    0.9896   -0.5381   -1.8372 N   0  0  0  0  0  0  0  0  0  0  0  0
   -0.3443   -0.5578   -1.3235 C   0  0  0  0  0  0  0  0  0  0  0  0
   -1.3068   -0.7646   -2.1090 O   0  0  0  0  0  0  0  0  0  0  0  0
   -2.3102    0.9988   -0.2072 H   0  0  0  0  0  0  0  0  0  0  0  0
   -0.7271    1.8571   -0.0419 H   0  0  0  0  0  0  0  0  0  0  0  0
   -1.5545    1.1764    1.4148 H   0  0  0  0  0  0  0  0  0  0  0  0
   -1.2481   -1.1399    0.5253 H   0  0  0  0  0  0  0  0  0  0  0  0
    0.6213   -0.2448    2.0159 H   0  0  0  0  0  0  0  0  0  0  0  0
  1  2  1  0
  2  3  1  0
  3  4  2  0
  4  5  1  0
  5  6  1  0
  5  7  2  0
  7  8  1  0
  8  9  2  0
  8  2  1  0
  1 10  1  0
  1 11  1  0
  1 12  1  0
  2 13  1  0
  3 14  1  0
M  CHG  1   6  -1
M  END
>  <tautomer smiles>  (14) 
CC1C=NC(O)=NC1=O

>  <protonation smiles>  (14) 
CC1C=NC([O-])=NC1=O

>  <Score>  (14) 
20.91

>  <Label>  (14) 
high_energy

$$$$

     RDKit          3D

 14 14  0  0  0  0  0  0  0  0999 V2000
   -1.1891    0.1058    1.2559 C   0  0  0  0  0  0  0  0  0  0  0  0
   -0.4560   -0.5421    0.0796 C   0  0  0  0  0  0  0  0  0  0  0  0
   -0.6395    0.3071   -1.1601 C   0  0  0  0  0  0  0  0  0  0  0  0
    0.3561    0.8948   -1.7492 N   0  0  0  0  0  0  0  0  0  0  0  0
    1.6940    0.7265   -1.2848 C   0  0  0  0  0  0  0  0  0  0  0  0
    2.6392    1.3356   -1.8489 O   0  0  0  0  0  0  0  0  0  0  0  0
    1.9597   -0.1535   -0.1939 N   0  0  0  0  0  0  0  0  0  0  0  0
    1.0014   -0.7622    0.4357 C   0  0  0  0  0  0  0  0  0  0  0  0
    1.3212   -1.6318    1.4712 O   0  0  0  0  0  1  0  0  0  0  0  0
   -1.1162   -0.5385    2.1581 H   0  0  0  0  0  0  0  0  0  0  0  0
   -0.7511    1.1009    1.4881 H   0  0  0  0  0  0  0  0  0  0  0  0
   -2.2658    0.2351    1.0132 H   0  0  0  0  0  0  0  0  0  0  0  0
   -0.9150   -1.5347   -0.1171 H   0  0  0  0  0  0  0  0  0  0  0  0
   -1.6389    0.4572   -1.5477 H   0  0  0  0  0  0  0  0  0  0  0  0
  1  2  1  0
  2  3  1  0
  3  4  2  0
  4  5  1  0
  5  6  2  0
  5  7  1  0
  7  8  2  0
  8  9  1  0
  8  2  1  0
  1 10  1  0
  1 11  1  0
  1 12  1  0
  2 13  1  0
  3 14  1  0
M  CHG  1   9  -1
M  END
>  <tautomer smiles>  (15) 
CC1C=NC(=O)N=C1O

>  <protonation smiles>  (15) 
CC1C=NC(=O)N=C1[O-]

>  <Score>  (15) 
24.59

>  <Label>  (15) 
high_energy

$$$$

     RDKit          3D

 15 15  0  0  0  0  0  0  0  0999 V2000
   -1.8260    0.3594    0.0430 C   0  0  0  0  0  0  0  0  0  0  0  0
   -0.5784   -0.4512    0.3996 C   0  0  0  0  0  0  0  0  0  0  0  0
    0.4614    0.4636    1.0102 C   0  0  0  0  0  0  0  0  0  0  0  0
    1.5985    0.7059    0.4303 N   0  0  0  0  0  4  0  0  0  0  0  0
    1.9539    0.0572   -0.7918 C   0  0  0  0  0  0  0  0  0  0  0  0
    3.0446    0.3272   -1.3593 O   0  0  0  0  0  0  0  0  0  0  0  0
    1.0798   -0.9182   -1.3570 N   0  0  0  0  0  0  0  0  0  0  0  0
   -0.0728   -1.1874   -0.8244 C   0  0  0  0  0  0  0  0  0  0  0  0
   -0.8690   -2.1694   -1.4011 O   0  0  0  0  0  1  0  0  0  0  0  0
   -2.6217   -0.3096   -0.3491 H   0  0  0  0  0  0  0  0  0  0  0  0
   -1.5871    1.1244   -0.7275 H   0  0  0  0  0  0  0  0  0  0  0  0
   -2.2227    0.8711    0.9462 H   0  0  0  0  0  0  0  0  0  0  0  0
   -0.8571   -1.2077    1.1643 H   0  0  0  0  0  0  0  0  0  0  0  0
    0.2263    0.9618    1.9436 H   0  0  0  0  0  0  0  0  0  0  0  0
    2.2702    1.3729    0.8729 H   0  0  0  0  0  0  0  0  0  0  0  0
  1  2  1  0
  2  3  1  0
  3  4  2  0
  4  5  1  0
  5  6  2  0
  5  7  1  0
  7  8  2  0
  8  9  1  0
  8  2  1  0
  1 10  1  0
  1 11  1  0
  1 12  1  0
  2 13  1  0
  3 14  1  0
  4 15  1  0
M  CHG  2   4   1   9  -1
M  END
>  <tautomer smiles>  (16) 
CC1C=NC(=O)N=C1O

>  <protonation smiles>  (16) 
CC1C=[NH+]C(=O)N=C1[O-]

>  <Score>  (16) 
24.59

>  <Label>  (16) 
high_energy

$$$$
